! ASTERION FCTA-1 V0.8 optimised line model
! Units: N, mm, tonne, s, MPa
/PREP7
ET,1,BEAM188
MP,EX,1,70000
MP,PRXY,1,0.33
MP,DENS,1,2.81E-9
! Section 1 LONGERON_OPT_160X6
SECTYPE,1,BEAM,CTUBE,LONGERON_OPT_160X6
SECDATA,74.000000,80.000000
! Section 2 FRAME_OPT_130X5
SECTYPE,2,BEAM,CTUBE,FRAME_OPT_130X5
SECDATA,60.000000,65.000000
! Section 3 DIAGONAL_OPT_100X4
SECTYPE,3,BEAM,CTUBE,DIAGONAL_OPT_100X4
SECDATA,46.000000,50.000000
! Section 4 RING_BEAM
SECTYPE,4,BEAM,CTUBE,RING_BEAM
SECDATA,94.000000,100.000000
! Section 5 RING_SPOKE
SECTYPE,5,BEAM,CTUBE,RING_SPOKE
SECDATA,55.000000,60.000000
! Section 6 INTERFACE_BOOM
SECTYPE,6,BEAM,CTUBE,INTERFACE_BOOM
SECDATA,65.000000,70.000000
! Section 7 DOCK_FRAME
SECTYPE,7,BEAM,CTUBE,DOCK_FRAME
SECDATA,65.000000,70.000000
! Section 8 RING_TORQUE_BRACE_90X4
SECTYPE,8,BEAM,CTUBE,RING_TORQUE_BRACE_90X4
SECDATA,41.000000,45.000000
! Section 9 DOCK_LOAD_SPREADER_100X4
SECTYPE,9,BEAM,CTUBE,DOCK_LOAD_SPREADER_100X4
SECDATA,46.000000,50.000000
! Section 10 PROP_LONGITUDINAL_STRUT_120X5
SECTYPE,10,BEAM,CTUBE,PROP_LONGITUDINAL_STRUT_120X5
SECDATA,55.000000,60.000000
N,1,-21000.000000,1800.000000,0.000000
N,2,-21000.000000,1272.792206,1272.792206
N,3,-21000.000000,0.000000,1800.000000
N,4,-21000.000000,-1272.792206,1272.792206
N,5,-21000.000000,-1800.000000,0.000000
N,6,-21000.000000,-1272.792206,-1272.792206
N,7,-21000.000000,-0.000000,-1800.000000
N,8,-21000.000000,1272.792206,-1272.792206
N,9,-18500.000000,1800.000000,0.000000
N,10,-18500.000000,1272.792206,1272.792206
N,11,-18500.000000,0.000000,1800.000000
N,12,-18500.000000,-1272.792206,1272.792206
N,13,-18500.000000,-1800.000000,0.000000
N,14,-18500.000000,-1272.792206,-1272.792206
N,15,-18500.000000,-0.000000,-1800.000000
N,16,-18500.000000,1272.792206,-1272.792206
N,17,-16000.000000,1800.000000,0.000000
N,18,-16000.000000,1272.792206,1272.792206
N,19,-16000.000000,0.000000,1800.000000
N,20,-16000.000000,-1272.792206,1272.792206
! ... 202 like lines cut
SECNUM,2
EN,1,1,2
SECNUM,2
EN,2,2,3
SECNUM,2
EN,3,3,4
SECNUM,2
EN,4,4,5
SECNUM,2
EN,5,5,6
SECNUM,2
EN,6,6,7
SECNUM,2
EN,7,7,8
SECNUM,2
EN,8,8,1
SECNUM,1
EN,9,1,9
SECNUM,3
EN,10,1,10
SECNUM,1
EN,11,2,10
SECNUM,3
EN,12,2,11
SECNUM,1
EN,13,3,11
SECNUM,3
EN,14,3,12
SECNUM,1
EN,15,4,12
SECNUM,3
EN,16,4,13
SECNUM,1
EN,17,5,13
SECNUM,3
EN,18,5,14
SECNUM,1
EN,19,6,14
SECNUM,3
EN,20,6,15
! ... 1256 like lines cut
ALLSEL,ALL
FINISH
