! ASTERION FCTA-1 v0.3 preliminary BEAM188 line model
! Units: mm, N, s, MPa; density in tonne/mm^3
/PREP7
ET,1,BEAM188
MP,EX,1,71700.0
MP,PRXY,1,0.33
MP,DENS,1,2.81E-9
SECTYPE,1,BEAM,CTUBE,LONGERON
SECDATA,74.000000,80.000000,16
SECTYPE,2,BEAM,CTUBE,FRAME
SECDATA,55.000000,60.000000,16
SECTYPE,3,BEAM,CTUBE,DIAGONAL
SECDATA,41.000000,45.000000,16
SECTYPE,4,BEAM,CTUBE,RING_BEAM
SECDATA,94.000000,100.000000,16
SECTYPE,5,BEAM,CTUBE,RING_SPOKE
SECDATA,55.000000,60.000000,16
SECTYPE,6,BEAM,CTUBE,INTERFACE_BOOM
SECDATA,65.000000,70.000000,16
SECTYPE,7,BEAM,CTUBE,DOCK_FRAME
SECDATA,65.000000,70.000000,16
! Nodes
N,1,-21000.000000,1200.000000,0.000000
N,2,-21000.000000,848.528137,848.528137
N,3,-21000.000000,0.000000,1200.000000
N,4,-21000.000000,-848.528137,848.528137
N,5,-21000.000000,-1200.000000,0.000000
N,6,-21000.000000,-848.528137,-848.528137
N,7,-21000.000000,-0.000000,-1200.000000
N,8,-21000.000000,848.528137,-848.528137
N,9,-18500.000000,1200.000000,0.000000
N,10,-18500.000000,848.528137,848.528137
N,11,-18500.000000,0.000000,1200.000000
N,12,-18500.000000,-848.528137,848.528137
N,13,-18500.000000,-1200.000000,0.000000
N,14,-18500.000000,-848.528137,-848.528137
N,15,-18500.000000,-0.000000,-1200.000000
N,16,-18500.000000,848.528137,-848.528137
N,17,-16000.000000,1200.000000,0.000000
N,18,-16000.000000,848.528137,848.528137
N,19,-16000.000000,0.000000,1200.000000
N,20,-16000.000000,-848.528137,848.528137
! ... 202 like lines cut
! Elements
SECNUM,2
E,1,2
SECNUM,2
E,2,3
SECNUM,2
E,3,4
SECNUM,2
E,4,5
SECNUM,2
E,5,6
SECNUM,2
E,6,7
SECNUM,2
E,7,8
SECNUM,2
E,8,1
SECNUM,1
E,1,9
SECNUM,3
E,1,10
SECNUM,1
E,2,10
SECNUM,3
E,2,11
SECNUM,1
E,3,11
SECNUM,3
E,3,12
SECNUM,1
E,4,12
SECNUM,3
E,4,13
SECNUM,1
E,5,13
SECNUM,3
E,5,14
SECNUM,1
E,6,14
SECNUM,3
E,6,15
! ... 1120 like lines cut
ALLSEL,ALL
FINISH
